python/psse/loads_as_gens_no_pevs_case9a.raw
0, 100.00, 32, 1, 1, 60
CONVERTED DATA FROM A MATPOWER CASE
MATPOWER CASE NAME: case9a
      1, 'B0001',    345.00, 3,   1,   1, 1,    1.00000,    0.00000
      2, 'B0002',    345.00, 2,   1,   1, 1,    1.00000,    0.00000
      3, 'B0003',    345.00, 2,   1,   1, 1,    1.00000,    0.00000
      4, 'B0004',    345.00, 1,   1,   1, 1,    1.00000,    0.00000
      5, 'B0005',    345.00, 2,   1,   1, 1,    1.00000,    0.00000
      6, 'B0006',    345.00, 1,   1,   1, 1,    1.00000,    0.00000
      7, 'B0007',    345.00, 2,   1,   1, 1,    1.00000,    0.00000
      8, 'B0008',    345.00, 1,   1,   1, 1,    1.00000,    0.00000
      9, 'B0009',    345.00, 2,   1,   1, 1,    1.00000,    0.00000
      0  / END OF BUS DATA, BEGIN LOAD DATA
      0  / END OF LOAD DATA, BEGIN FIXED SHUNT DATA
      0  / END OF FIXED SHUNT DATA, BEGIN GENERATOR DATA
      1, '1',      0.000,      0.000,    300.000,   -300.000,    1.00000,  0,    100.000, 0,  0.30000, 0, 0, 1,   1, 100,    250.000,     10.000,   1, 1, 0, 1, 0, 1, 0, 1, 0, 1
      1, '2',      0.000,      0.000,      0.000,      0.000,    1.00000,  0,    100.000, 0,  0.00010, 0, 0, 1,   1, 100,   9999.000,     10.000,   1, 1, 0, 1, 0, 1, 0, 1, 0, 1
      2, '1',    163.000,      0.000,    300.000,   -300.000,    1.00000,  0,    100.000, 0,  0.30000, 0, 0, 1,   1, 100,    300.000,     10.000,   2, 1, 0, 1, 0, 1, 0, 1, 0, 1
      3, '1',     85.000,      0.000,    300.000,   -300.000,    1.00000,  0,    100.000, 0,  0.30000, 0, 0, 1,   1, 100,    270.000,     10.000,   3, 1, 0, 1, 0, 1, 0, 1, 0, 1
      5, '1',    -90.000,      0.000,    300.000,   -300.000,    1.00000,  0,    100.000, 0,  0.30000, 0, 0, 1,   1, 100,    250.000,     10.000,   1, 1, 0, 1, 0, 1, 0, 1, 0, 1
      7, '1',   -100.000,      0.000,    300.000,   -300.000,    1.00000,  0,    100.000, 0,  0.30000, 0, 0, 1,   1, 100,    300.000,     10.000,   2, 1, 0, 1, 0, 1, 0, 1, 0, 1
      9, '1',   -125.000,      0.000,    300.000,   -300.000,    1.00000,  0,    100.000, 0,  0.30000, 0, 0, 1,   1, 100,    270.000,     10.000,   3, 1, 0, 1, 0, 1, 0, 1, 0, 1
      0  / END OF GENERATOR DATA, BEGIN BRANCH DATA
      1,       4,   '1',     0.000000,     0.057600,     0.000000,    250.00,    250.00,    250.00, 0, 0, 0, 0,   1, 1, 0,     1, 1, 0, 1, 0, 1, 0, 1
      4,       5,   '1',     0.000000,     0.092000,     0.158000,    250.00,    250.00,    250.00, 0, 0, 0, 0,   1, 1, 0,     4, 1, 0, 1, 0, 1, 0, 1
      5,       6,   '1',     0.000000,     0.170000,     0.358000,    150.00,    150.00,    150.00, 0, 0, 0, 0,   1, 1, 0,     5, 1, 0, 1, 0, 1, 0, 1
      3,       6,   '1',     0.000000,     0.058600,     0.000000,    300.00,    300.00,    300.00, 0, 0, 0, 0,   1, 1, 0,     3, 1, 0, 1, 0, 1, 0, 1
      6,       7,   '1',     0.000000,     0.100800,     0.209000,    150.00,    150.00,    150.00, 0, 0, 0, 0,   1, 1, 0,     6, 1, 0, 1, 0, 1, 0, 1
      7,       8,   '1',     0.000000,     0.072000,     0.149000,    250.00,    250.00,    250.00, 0, 0, 0, 0,   1, 1, 0,     7, 1, 0, 1, 0, 1, 0, 1
      8,       2,   '1',     0.000000,     0.062500,     0.000000,    250.00,    250.00,    250.00, 0, 0, 0, 0,   1, 1, 0,     8, 1, 0, 1, 0, 1, 0, 1
      8,       9,   '1',     0.000000,     0.161000,     0.306000,    250.00,    250.00,    250.00, 0, 0, 0, 0,   1, 1, 0,     8, 1, 0, 1, 0, 1, 0, 1
      9,       4,   '1',     0.000000,     0.085000,     0.176000,    250.00,    250.00,    250.00, 0, 0, 0, 0,   1, 1, 0,     9, 1, 0, 1, 0, 1, 0, 1
      0  / END OF BRANCH DATA, BEGIN TRANSFORMER DATA
      0  / END OF TRANSFORMER DATA, BEGIN AREA DATA
      1, 0, 0.0, 10.0, 'Area 1'
Q /END OF INPUT DATA, NOTHIG WILL BE READ BELOW THIS LINE
